guanosine
     RDKit          3D

 33 35  0  0  0  0  0  0  0  0999 V2000
    1.4302   -2.7705    1.0208 C   0  0  0  0  0  0  0  0  0  0  0  0
    2.6509   -2.7348    0.5267 N   0  0  0  0  0  0  0  0  0  0  0  0
    2.7211   -1.5248   -0.1125 C   0  0  0  0  0  0  0  0  0  0  0  0
    1.5424   -0.8206    0.0021 C   0  0  0  0  0  0  0  0  0  0  0  0
    0.7178   -1.6302    0.7318 N   0  0  0  0  0  0  0  0  0  0  0  0
   -0.6431   -1.3787    1.1616 C   0  0  1  0  0  0  0  0  0  0  0  0
   -0.8206   -0.1434    2.0550 C   0  0  1  0  0  0  0  0  0  0  0  0
   -1.4903    0.8586    1.1315 C   0  0  1  0  0  0  0  0  0  0  0  0
   -2.2815   -0.0532    0.1995 C   0  0  2  0  0  0  0  0  0  0  0  0
   -1.4830   -1.2245   -0.0085 O   0  0  0  0  0  0  0  0  0  0  0  0
   -2.6129    0.6273   -1.1237 C   0  0  0  0  0  0  0  0  0  0  0  0
   -3.4220    1.7808   -0.9011 O   0  0  0  0  0  0  0  0  0  0  0  0
   -2.3211    1.7633    1.8597 O   0  0  0  0  0  0  0  0  0  0  0  0
   -1.7101   -0.4426    3.1484 O   0  0  0  0  0  0  0  0  0  0  0  0
    1.2549    0.4078   -0.4905 N   0  0  0  0  0  0  0  0  0  0  0  0
    2.2403    0.9435   -1.1593 C   0  0  0  0  0  0  0  0  0  0  0  0
    3.4619    0.3324   -1.3519 N   0  0  0  0  0  0  0  0  0  0  0  0
    3.8082   -0.9120   -0.8443 C   0  0  0  0  0  0  0  0  0  0  0  0
    4.9232   -1.3943   -1.0170 O   0  0  0  0  0  0  0  0  0  0  0  0
    2.0906    2.1707   -1.7184 N   0  0  0  0  0  0  0  0  0  0  0  0
    1.0121   -3.5901    1.5924 H   0  0  0  0  0  0  0  0  0  0  0  0
   -0.9913   -2.2799    1.6808 H   0  0  0  0  0  0  0  0  0  0  0  0
    0.1069    0.2332    2.4965 H   0  0  0  0  0  0  0  0  0  0  0  0
   -0.7423    1.4405    0.5870 H   0  0  0  0  0  0  0  0  0  0  0  0
   -3.2199   -0.3546    0.6838 H   0  0  0  0  0  0  0  0  0  0  0  0
   -1.6983    0.9410   -1.6386 H   0  0  0  0  0  0  0  0  0  0  0  0
   -3.1345   -0.0587   -1.8003 H   0  0  0  0  0  0  0  0  0  0  0  0
   -4.3500    1.4810   -0.9138 H   0  0  0  0  0  0  0  0  0  0  0  0
   -2.7716    2.3081    1.1806 H   0  0  0  0  0  0  0  0  0  0  0  0
   -2.1462    0.4130    3.3527 H   0  0  0  0  0  0  0  0  0  0  0  0
    4.2017    0.8173   -1.8303 H   0  0  0  0  0  0  0  0  0  0  0  0
    2.5559    2.3235   -2.6038 H   0  0  0  0  0  0  0  0  0  0  0  0
    1.1206    2.4708   -1.7350 H   0  0  0  0  0  0  0  0  0  0  0  0
  1  2  2  0
  2  3  1  0
  3  4  2  0
  4  5  1  0
  5  6  1  0
  6  7  1  0
  7  8  1  0
  8  9  1  0
  9 10  1  0
  9 11  1  0
 11 12  1  0
  8 13  1  0
  7 14  1  0
  4 15  1  0
 15 16  2  0
 16 17  1  0
 17 18  1  0
 18 19  2  0
 16 20  1  0
  5  1  1  0
 18  3  1  0
 10  6  1  0
  1 21  1  0
  6 22  1  1
  7 23  1  1
  8 24  1  6
  9 25  1  1
 11 26  1  0
 11 27  1  0
 12 28  1  0
 13 29  1  0
 14 30  1  0
 17 31  1  0
 20 32  1  0
 20 33  1  0
M  END
