guanine
     RDKit          3D

 16 17  0  0  0  0  0  0  0  0999 V2000
    2.6357   -1.1050    0.0650 C   0  0  0  0  0  0  0  0  0  0  0  0
    1.5525   -1.8540    0.0274 N   0  0  0  0  0  0  0  0  0  0  0  0
    0.5169   -0.9684   -0.0234 C   0  0  0  0  0  0  0  0  0  0  0  0
    0.9726    0.3188   -0.0085 C   0  0  0  0  0  0  0  0  0  0  0  0
    2.3311    0.2305    0.0432 N   0  0  0  0  0  0  0  0  0  0  0  0
    0.1181    1.4442   -0.0488 C   0  0  0  0  0  0  0  0  0  0  0  0
    0.4891    2.6116   -0.0604 O   0  0  0  0  0  0  0  0  0  0  0  0
   -1.2047    1.0751   -0.0762 N   0  0  0  0  0  0  0  0  0  0  0  0
   -1.6253   -0.2334   -0.1066 C   0  0  0  0  0  0  0  0  0  0  0  0
   -0.8442   -1.2734   -0.0822 N   0  0  0  0  0  0  0  0  0  0  0  0
   -2.9720   -0.4150   -0.1592 N   0  0  0  0  0  0  0  0  0  0  0  0
    3.6544   -1.4676    0.1075 H   0  0  0  0  0  0  0  0  0  0  0  0
    2.9833    1.0036    0.0614 H   0  0  0  0  0  0  0  0  0  0  0  0
   -1.8739    1.8215   -0.1592 H   0  0  0  0  0  0  0  0  0  0  0  0
   -3.5243    0.2030    0.4206 H   0  0  0  0  0  0  0  0  0  0  0  0
   -3.2094   -1.3916   -0.0007 H   0  0  0  0  0  0  0  0  0  0  0  0
  1  2  2  0
  2  3  1  0
  3  4  2  0
  4  5  1  0
  4  6  1  0
  6  7  2  0
  6  8  1  0
  8  9  1  0
  9 10  2  0
  9 11  1  0
  5  1  1  0
 10  3  1  0
  1 12  1  0
  5 13  1  0
  8 14  1  0
 11 15  1  0
 11 16  1  0
M  END
