guanine-ribose
     RDKit          3D

 36 37  0  0  0  0  0  0  0  0999 V2000
   -0.5643   -1.1050    0.0650 C   0  0  0  0  0  0  0  0  0  0  0  0
   -1.6475   -1.8540    0.0274 N   0  0  0  0  0  0  0  0  0  0  0  0
   -2.6831   -0.9684   -0.0234 C   0  0  0  0  0  0  0  0  0  0  0  0
   -2.2274    0.3188   -0.0085 C   0  0  0  0  0  0  0  0  0  0  0  0
   -0.8689    0.2305    0.0432 N   0  0  0  0  0  0  0  0  0  0  0  0
   -3.0819    1.4442   -0.0488 C   0  0  0  0  0  0  0  0  0  0  0  0
   -2.7109    2.6116   -0.0604 O   0  0  0  0  0  0  0  0  0  0  0  0
   -4.4047    1.0751   -0.0762 N   0  0  0  0  0  0  0  0  0  0  0  0
   -4.8253   -0.2334   -0.1066 C   0  0  0  0  0  0  0  0  0  0  0  0
   -4.0442   -1.2734   -0.0822 N   0  0  0  0  0  0  0  0  0  0  0  0
   -6.1720   -0.4150   -0.1592 N   0  0  0  0  0  0  0  0  0  0  0  0
    0.4544   -1.4676    0.1075 H   0  0  0  0  0  0  0  0  0  0  0  0
   -0.2167    1.0036    0.0614 H   0  0  0  0  0  0  0  0  0  0  0  0
   -5.0739    1.8215   -0.1592 H   0  0  0  0  0  0  0  0  0  0  0  0
   -6.7243    0.2030    0.4206 H   0  0  0  0  0  0  0  0  0  0  0  0
   -6.4094   -1.3916   -0.0007 H   0  0  0  0  0  0  0  0  0  0  0  0
    5.7153    0.9377   -0.2116 C   0  0  0  0  0  0  0  0  0  0  0  0
    4.4377    0.3945    0.4206 C   0  0  2  0  0  0  0  0  0  0  0  0
    4.0533   -0.9836   -0.1063 C   0  0  2  0  0  0  0  0  0  0  0  0
    2.5493   -0.9711    0.1047 C   0  0  2  0  0  0  0  0  0  0  0  0
    2.2168    0.4756   -0.2675 C   0  0  1  0  0  0  0  0  0  0  0  0
    3.3410    1.2849    0.1053 O   0  0  0  0  0  0  0  0  0  0  0  0
    2.0652    0.5874   -1.6729 O   0  0  0  0  0  0  0  0  0  0  0  0
    2.2408   -1.2434    1.4792 O   0  0  0  0  0  0  0  0  0  0  0  0
    4.6712   -2.0421    0.6192 O   0  0  0  0  0  0  0  0  0  0  0  0
    6.0023    2.2345    0.3140 O   0  0  0  0  0  0  0  0  0  0  0  0
    6.5701    0.2869   -0.0063 H   0  0  0  0  0  0  0  0  0  0  0  0
    5.6041    1.0469   -1.2953 H   0  0  0  0  0  0  0  0  0  0  0  0
    4.5469    0.3945    1.5124 H   0  0  0  0  0  0  0  0  0  0  0  0
    4.2974   -1.0792   -1.1713 H   0  0  0  0  0  0  0  0  0  0  0  0
    2.0358   -1.7155   -0.5105 H   0  0  0  0  0  0  0  0  0  0  0  0
    1.3172    0.8440    0.2356 H   0  0  0  0  0  0  0  0  0  0  0  0
    1.7130    1.4833   -1.8126 H   0  0  0  0  0  0  0  0  0  0  0  0
    2.9805   -1.7829    1.8245 H   0  0  0  0  0  0  0  0  0  0  0  0
    4.4894   -2.8689    0.1354 H   0  0  0  0  0  0  0  0  0  0  0  0
    5.1528    2.7166    0.3033 H   0  0  0  0  0  0  0  0  0  0  0  0
  1  2  2  0
  2  3  1  0
  3  4  2  0
  4  5  1  0
  4  6  1  0
  6  7  2  0
  6  8  1  0
  8  9  1  0
  9 10  2  0
  9 11  1  0
  5  1  1  0
 10  3  1  0
  1 12  1  0
  5 13  1  0
  8 14  1  0
 11 15  1  0
 11 16  1  0
 17 18  1  0
 18 19  1  0
 19 20  1  0
 20 21  1  0
 21 22  1  0
 21 23  1  0
 20 24  1  0
 19 25  1  0
 17 26  1  0
 22 18  1  0
 17 27  1  0
 17 28  1  0
 18 29  1  1
 19 30  1  6
 20 31  1  6
 21 32  1  1
 23 33  1  0
 24 34  1  0
 25 35  1  0
 26 36  1  0
M  END
