ribose
     RDKit          3D

 20 20  0  0  0  0  0  0  0  0999 V2000
    1.9153    0.9377   -0.2116 C   0  0  0  0  0  0  0  0  0  0  0  0
    0.6377    0.3945    0.4206 C   0  0  2  0  0  0  0  0  0  0  0  0
    0.2533   -0.9836   -0.1063 C   0  0  2  0  0  0  0  0  0  0  0  0
   -1.2507   -0.9711    0.1047 C   0  0  2  0  0  0  0  0  0  0  0  0
   -1.5832    0.4756   -0.2675 C   0  0  0  0  0  0  0  0  0  0  0  0
   -0.4590    1.2849    0.1053 O   0  0  0  0  0  0  0  0  0  0  0  0
   -1.7348    0.5874   -1.6729 O   0  0  0  0  0  0  0  0  0  0  0  0
   -1.5592   -1.2434    1.4792 O   0  0  0  0  0  0  0  0  0  0  0  0
    0.8712   -2.0421    0.6192 O   0  0  0  0  0  0  0  0  0  0  0  0
    2.2023    2.2345    0.3140 O   0  0  0  0  0  0  0  0  0  0  0  0
    2.7701    0.2869   -0.0063 H   0  0  0  0  0  0  0  0  0  0  0  0
    1.8041    1.0469   -1.2953 H   0  0  0  0  0  0  0  0  0  0  0  0
    0.7469    0.3945    1.5124 H   0  0  0  0  0  0  0  0  0  0  0  0
    0.4974   -1.0792   -1.1713 H   0  0  0  0  0  0  0  0  0  0  0  0
   -1.7642   -1.7155   -0.5105 H   0  0  0  0  0  0  0  0  0  0  0  0
   -2.4828    0.8440    0.2356 H   0  0  0  0  0  0  0  0  0  0  0  0
   -2.0870    1.4833   -1.8126 H   0  0  0  0  0  0  0  0  0  0  0  0
   -0.8195   -1.7829    1.8245 H   0  0  0  0  0  0  0  0  0  0  0  0
    0.6894   -2.8689    0.1354 H   0  0  0  0  0  0  0  0  0  0  0  0
    1.3528    2.7166    0.3033 H   0  0  0  0  0  0  0  0  0  0  0  0
  1  2  1  0
  2  3  1  0
  3  4  1  0
  4  5  1  0
  5  6  1  0
  5  7  1  0
  4  8  1  0
  3  9  1  0
  1 10  1  0
  6  2  1  0
  1 11  1  0
  1 12  1  0
  2 13  1  1
  3 14  1  6
  4 15  1  6
  5 16  1  0
  7 17  1  0
  8 18  1  0
  9 19  1  0
 10 20  1  0
M  END
