uracil
     RDKit          3D

 12 12  0  0  0  0  0  0  0  0999 V2000
    0.7372    1.2014   -0.0666 C   0  0  0  0  0  0  0  0  0  0  0  0
   -0.5953    1.2497   -0.0021 C   0  0  0  0  0  0  0  0  0  0  0  0
   -1.3360    0.1033    0.0634 N   0  0  0  0  0  0  0  0  0  0  0  0
   -0.7907   -1.1532    0.0681 C   0  0  0  0  0  0  0  0  0  0  0  0
   -1.4851   -2.1619    0.1279 O   0  0  0  0  0  0  0  0  0  0  0  0
    0.5732   -1.2042    0.0020 N   0  0  0  0  0  0  0  0  0  0  0  0
    1.4001   -0.1185   -0.0662 C   0  0  0  0  0  0  0  0  0  0  0  0
    2.6206   -0.2099   -0.1242 O   0  0  0  0  0  0  0  0  0  0  0  0
    1.3657    2.0798   -0.1198 H   0  0  0  0  0  0  0  0  0  0  0  0
   -1.1425    2.1869    0.0014 H   0  0  0  0  0  0  0  0  0  0  0  0
   -2.3480    0.1430    0.1124 H   0  0  0  0  0  0  0  0  0  0  0  0
    1.0007   -2.1164    0.0038 H   0  0  0  0  0  0  0  0  0  0  0  0
  1  2  2  0
  2  3  1  0
  3  4  1  0
  4  5  2  0
  4  6  1  0
  6  7  1  0
  7  8  2  0
  7  1  1  0
  1  9  1  0
  2 10  1  0
  3 11  1  0
  6 12  1  0
M  END
