uracil-ribose
     RDKit          3D

 32 32  0  0  0  0  0  0  0  0999 V2000
   -2.4628    1.2014   -0.0666 C   0  0  0  0  0  0  0  0  0  0  0  0
   -3.7953    1.2497   -0.0021 C   0  0  0  0  0  0  0  0  0  0  0  0
   -4.5360    0.1033    0.0634 N   0  0  0  0  0  0  0  0  0  0  0  0
   -3.9907   -1.1532    0.0681 C   0  0  0  0  0  0  0  0  0  0  0  0
   -4.6851   -2.1619    0.1279 O   0  0  0  0  0  0  0  0  0  0  0  0
   -2.6268   -1.2042    0.0020 N   0  0  0  0  0  0  0  0  0  0  0  0
   -1.7999   -0.1185   -0.0662 C   0  0  0  0  0  0  0  0  0  0  0  0
   -0.5794   -0.2099   -0.1242 O   0  0  0  0  0  0  0  0  0  0  0  0
   -1.8343    2.0798   -0.1198 H   0  0  0  0  0  0  0  0  0  0  0  0
   -4.3425    2.1869    0.0014 H   0  0  0  0  0  0  0  0  0  0  0  0
   -5.5480    0.1430    0.1124 H   0  0  0  0  0  0  0  0  0  0  0  0
   -2.1993   -2.1164    0.0038 H   0  0  0  0  0  0  0  0  0  0  0  0
    5.7153    0.9377   -0.2116 C   0  0  0  0  0  0  0  0  0  0  0  0
    4.4377    0.3945    0.4206 C   0  0  2  0  0  0  0  0  0  0  0  0
    4.0533   -0.9836   -0.1063 C   0  0  2  0  0  0  0  0  0  0  0  0
    2.5493   -0.9711    0.1047 C   0  0  2  0  0  0  0  0  0  0  0  0
    2.2168    0.4756   -0.2675 C   0  0  1  0  0  0  0  0  0  0  0  0
    3.3410    1.2849    0.1053 O   0  0  0  0  0  0  0  0  0  0  0  0
    2.0652    0.5874   -1.6729 O   0  0  0  0  0  0  0  0  0  0  0  0
    2.2408   -1.2434    1.4792 O   0  0  0  0  0  0  0  0  0  0  0  0
    4.6712   -2.0421    0.6192 O   0  0  0  0  0  0  0  0  0  0  0  0
    6.0023    2.2345    0.3140 O   0  0  0  0  0  0  0  0  0  0  0  0
    6.5701    0.2869   -0.0063 H   0  0  0  0  0  0  0  0  0  0  0  0
    5.6041    1.0469   -1.2953 H   0  0  0  0  0  0  0  0  0  0  0  0
    4.5469    0.3945    1.5124 H   0  0  0  0  0  0  0  0  0  0  0  0
    4.2974   -1.0792   -1.1713 H   0  0  0  0  0  0  0  0  0  0  0  0
    2.0358   -1.7155   -0.5105 H   0  0  0  0  0  0  0  0  0  0  0  0
    1.3172    0.8440    0.2356 H   0  0  0  0  0  0  0  0  0  0  0  0
    1.7130    1.4833   -1.8126 H   0  0  0  0  0  0  0  0  0  0  0  0
    2.9805   -1.7829    1.8245 H   0  0  0  0  0  0  0  0  0  0  0  0
    4.4894   -2.8689    0.1354 H   0  0  0  0  0  0  0  0  0  0  0  0
    5.1528    2.7166    0.3033 H   0  0  0  0  0  0  0  0  0  0  0  0
  1  2  2  0
  2  3  1  0
  3  4  1  0
  4  5  2  0
  4  6  1  0
  6  7  1  0
  7  8  2  0
  7  1  1  0
  1  9  1  0
  2 10  1  0
  3 11  1  0
  6 12  1  0
 13 14  1  0
 14 15  1  0
 15 16  1  0
 16 17  1  0
 17 18  1  0
 17 19  1  0
 16 20  1  0
 15 21  1  0
 13 22  1  0
 18 14  1  0
 13 23  1  0
 13 24  1  0
 14 25  1  1
 15 26  1  6
 16 27  1  6
 17 28  1  1
 19 29  1  0
 20 30  1  0
 21 31  1  0
 22 32  1  0
M  END
