uridine
     RDKit          3D

 29 30  0  0  0  0  0  0  0  0999 V2000
    2.3810    2.0594    0.2450 C   0  0  0  0  0  0  0  0  0  0  0  0
    1.3243    1.3646   -0.1823 C   0  0  0  0  0  0  0  0  0  0  0  0
    1.3706   -0.0052   -0.3490 N   0  0  0  0  0  0  0  0  0  0  0  0
    2.5149   -0.7359   -0.0539 C   0  0  0  0  0  0  0  0  0  0  0  0
    2.5712   -1.9626   -0.1280 O   0  0  0  0  0  0  0  0  0  0  0  0
    3.5992   -0.0077    0.3554 N   0  0  0  0  0  0  0  0  0  0  0  0
    3.6286    1.3427    0.5487 C   0  0  0  0  0  0  0  0  0  0  0  0
    4.6190    1.9367    0.9566 O   0  0  0  0  0  0  0  0  0  0  0  0
    0.2098   -0.7741   -0.7888 C   0  0  1  0  0  0  0  0  0  0  0  0
   -0.4718   -1.5438    0.3594 C   0  0  1  0  0  0  0  0  0  0  0  0
   -1.6953   -0.6925    0.6436 C   0  0  1  0  0  0  0  0  0  0  0  0
   -2.0361   -0.1594   -0.7416 C   0  0  2  0  0  0  0  0  0  0  0  0
   -0.7782    0.0725   -1.4079 O   0  0  0  0  0  0  0  0  0  0  0  0
   -2.8684    1.1226   -0.7148 C   0  0  0  0  0  0  0  0  0  0  0  0
   -2.2162    2.1500    0.0341 O   0  0  0  0  0  0  0  0  0  0  0  0
   -2.7551   -1.4593    1.2080 O   0  0  0  0  0  0  0  0  0  0  0  0
   -0.9068   -2.8535   -0.0600 O   0  0  0  0  0  0  0  0  0  0  0  0
    2.3677    3.1321    0.3825 H   0  0  0  0  0  0  0  0  0  0  0  0
    0.3916    1.8725   -0.4131 H   0  0  0  0  0  0  0  0  0  0  0  0
    4.4384   -0.5197    0.5773 H   0  0  0  0  0  0  0  0  0  0  0  0
    0.5485   -1.4742   -1.5628 H   0  0  0  0  0  0  0  0  0  0  0  0
    0.1485   -1.6840    1.2500 H   0  0  0  0  0  0  0  0  0  0  0  0
   -1.4320    0.1165    1.3334 H   0  0  0  0  0  0  0  0  0  0  0  0
   -2.5838   -0.9125   -1.3225 H   0  0  0  0  0  0  0  0  0  0  0  0
   -3.8475    0.9366   -0.2624 H   0  0  0  0  0  0  0  0  0  0  0  0
   -3.0075    1.5001   -1.7329 H   0  0  0  0  0  0  0  0  0  0  0  0
   -2.8063    2.9238    0.0147 H   0  0  0  0  0  0  0  0  0  0  0  0
   -2.6157   -2.3723    0.8774 H   0  0  0  0  0  0  0  0  0  0  0  0
   -0.0925   -3.3735   -0.2111 H   0  0  0  0  0  0  0  0  0  0  0  0
  1  2  2  0
  2  3  1  0
  3  4  1  0
  4  5  2  0
  4  6  1  0
  6  7  1  0
  7  8  2  0
  3  9  1  0
  9 10  1  0
 10 11  1  0
 11 12  1  0
 12 13  1  0
 12 14  1  0
 14 15  1  0
 11 16  1  0
 10 17  1  0
  7  1  1  0
 13  9  1  0
  1 18  1  0
  2 19  1  0
  6 20  1  0
  9 21  1  6
 10 22  1  1
 11 23  1  1
 12 24  1  6
 14 25  1  0
 14 26  1  0
 15 27  1  0
 16 28  1  0
 17 29  1  0
M  END
